# this is a test for the MODFLOW Model Instance resource
### ... .....#
LIST                  9 example.lst
BAS6                 75 example.ba6
LPF                   7 example.lpf
DIS                   8 example.dis
###
   SIP                  13 example.sip
OC                   14 example.oc
SFR                  15 example.sfr
WEL                  16 example.wel
#   
GHB                  17 example.ghb
  UZF                  19 example.uzf
GAGE                 32 example.gag
DATA                 58 examplehd.out
 #
DATA(BINARY)         61 example.uzfot
DATA                 65 example.uzf1
DATA                 66 example.uzf2 
DATA                 67 example.uzf3 
DATA                 68 example.uzf4 
   DATA                 81 example.flw
DATA                 83 example.sg1
DATA                 84 example.sg2
DATA                 85 example.sg3
DATA                 86 example.sg4
DATA                 87 example.sg5
DATA                 88 example.sg6
DATA                 89 example.sg7
DATA                 90 example.sg8
DATA                 91 exampledv.sg9
